
     RDKit          3D

 36 37  0  0  0  0  0  0  0  0999 V2000
    0.0246   -0.0941   -0.2253 C   0  0  0  0  0  0  0  0  0  0  0  0
    0.9540   -1.3064    0.1309 C   0  0  0  0  0  0  0  0  0  0  0  0
    2.0769   -0.9232    1.1041 C   0  0  0  0  0  0  0  0  0  0  0  0
    2.9264    0.2384    0.5968 C   0  0  0  0  0  0  0  0  0  0  0  0
    2.1225    1.3309   -0.1083 C   0  0  0  0  0  0  0  0  0  0  0  0
    0.6228    1.2732    0.2426 C   0  0  0  0  0  0  0  0  0  0  0  0
   -0.0839    2.4760   -0.3924 C   0  0  0  0  0  0  0  0  0  0  0  0
    3.8936    1.0102    2.1221 Br  0  0  0  0  0  0  0  0  0  0  0  0
    1.5246   -1.9589   -1.1372 C   0  0  0  0  0  0  0  0  0  0  0  0
   -1.3556   -0.4264    0.1961 N   0  0  0  0  0  0  0  0  0  0  0  0
   -1.7856    0.0461    1.5037 C   0  0  0  0  0  0  0  0  0  0  0  0
   -3.2645   -0.3146    1.6678 C   0  0  0  0  0  0  0  0  0  0  0  0
   -3.9793    0.0625    0.0620 S   0  0  0  0  0  0  0  0  0  0  0  0
   -2.3803   -0.0780   -0.7886 C   0  0  2  0  0  0  0  0  0  0  0  0
   -2.5256   -1.3540   -2.0689 S   0  0  0  0  0  0  0  0  0  0  0  0
   -1.0427   -0.5969    2.5185 O   0  0  0  0  0  0  0  0  0  0  0  0
    0.0218   -0.0427   -1.3236 H   0  0  0  0  0  0  0  0  0  0  0  0
    0.3672   -2.0960    0.6190 H   0  0  0  0  0  0  0  0  0  0  0  0
    1.6212   -0.6742    2.0713 H   0  0  0  0  0  0  0  0  0  0  0  0
    2.7198   -1.7908    1.3012 H   0  0  0  0  0  0  0  0  0  0  0  0
    3.7223   -0.1202   -0.0650 H   0  0  0  0  0  0  0  0  0  0  0  0
    2.5264    2.3288    0.1013 H   0  0  0  0  0  0  0  0  0  0  0  0
    2.2274    1.1929   -1.1932 H   0  0  0  0  0  0  0  0  0  0  0  0
    0.5380    1.3748    1.3314 H   0  0  0  0  0  0  0  0  0  0  0  0
   -1.1286    2.5459   -0.0793 H   0  0  0  0  0  0  0  0  0  0  0  0
   -0.0570    2.4201   -1.4859 H   0  0  0  0  0  0  0  0  0  0  0  0
    0.4015    3.4116   -0.0933 H   0  0  0  0  0  0  0  0  0  0  0  0
    2.1206   -1.2554   -1.7267 H   0  0  0  0  0  0  0  0  0  0  0  0
    0.7173   -2.3330   -1.7752 H   0  0  0  0  0  0  0  0  0  0  0  0
    2.1638   -2.8105   -0.8805 H   0  0  0  0  0  0  0  0  0  0  0  0
   -1.6755    1.1286    1.6282 H   0  0  0  0  0  0  0  0  0  0  0  0
   -3.4030   -1.3759    1.9014 H   0  0  0  0  0  0  0  0  0  0  0  0
   -3.7360    0.2704    2.4631 H   0  0  0  0  0  0  0  0  0  0  0  0
   -2.1940    0.8846   -1.2721 H   0  0  0  0  0  0  0  0  0  0  0  0
   -3.7044   -0.9231   -2.5373 H   0  0  0  0  0  0  0  0  0  0  0  0
   -0.9765   -1.5208    2.2230 H   0  0  0  0  0  0  0  0  0  0  0  0
  2  1  1  0
  3  2  1  0
  4  3  1  0
  5  4  1  0
  6  5  1  0
  6  1  1  0
  7  6  1  0
  8  4  1  0
  9  2  1  0
 10  1  1  0
 11 10  1  0
 12 11  1  0
 13 12  1  0
 14 13  1  0
 14 10  1  0
 15 14  1  0
 16 11  1  0
  1 17  1  0
  2 18  1  0
  3 19  1  0
  3 20  1  0
  4 21  1  0
  5 22  1  0
  5 23  1  0
  6 24  1  0
  7 25  1  0
  7 26  1  0
  7 27  1  0
  9 28  1  0
  9 29  1  0
  9 30  1  0
 11 31  1  0
 12 32  1  0
 12 33  1  0
 14 34  1  6
 15 35  1  0
 16 36  1  0
M  END
>  <CID>  (1) 
4

>  <Energy>  (1) 
-9.297466298506361

$$$$
