
     RDKit          3D

 41 43  0  0  0  0  0  0  0  0999 V2000
    0.6303    1.0268    0.0214 C   0  0  0  0  0  0  0  0  0  0  0  0
   -0.5444    0.8908    1.0185 C   0  0  0  0  0  0  0  0  0  0  0  0
   -1.5101   -0.2341    0.6148 C   0  0  0  0  0  0  0  0  0  0  0  0
   -2.6557   -0.4105    1.6291 C   0  0  0  0  0  0  0  0  0  0  0  0
   -3.7707   -1.2581    1.0317 C   0  0  0  0  0  0  0  0  0  0  0  0
   -4.4155   -0.5995   -0.1882 C   0  0  0  0  0  0  0  0  0  0  0  0
   -3.4856    0.3877   -0.8943 C   0  0  0  0  0  0  0  0  0  0  0  0
   -2.0199   -0.0389   -0.8324 C   0  0  0  0  0  0  0  0  0  0  0  0
   -1.2413    0.9455   -1.5291 O   0  0  0  0  0  0  0  0  0  0  0  0
    0.1575    0.6871   -1.3987 C   0  0  0  0  0  0  0  0  0  0  0  0
   -5.1280   -1.6127    2.3902 Br  0  0  0  0  0  0  0  0  0  0  0  0
   -1.2512    2.1357    1.0602 O   0  0  0  0  0  0  0  0  0  0  0  0
    1.8458    0.1786    0.4597 C   0  0  0  0  0  0  0  0  0  0  0  0
    3.1727    0.5382   -0.2557 C   0  0  0  0  0  0  0  0  0  0  0  0
    4.3923    0.1521    0.5971 C   0  0  0  0  0  0  0  0  0  0  0  0
    4.5423   -1.3601    0.5424 C   0  0  0  0  0  0  0  0  0  0  0  0
    4.0937   -1.8103   -1.1552 S   0  0  0  0  0  0  0  0  0  0  0  0
    3.4056   -0.1852   -1.5842 C   0  0  0  0  0  0  0  0  0  0  0  0
    0.9372    2.0820    0.0261 H   0  0  0  0  0  0  0  0  0  0  0  0
   -0.1734    0.7209    2.0351 H   0  0  0  0  0  0  0  0  0  0  0  0
   -0.9345   -1.1713    0.6222 H   0  0  0  0  0  0  0  0  0  0  0  0
   -2.2567   -0.8765    2.5392 H   0  0  0  0  0  0  0  0  0  0  0  0
   -3.0573    0.5631    1.9387 H   0  0  0  0  0  0  0  0  0  0  0  0
   -3.3825   -2.2471    0.7618 H   0  0  0  0  0  0  0  0  0  0  0  0
   -5.3415   -0.0696    0.0668 H   0  0  0  0  0  0  0  0  0  0  0  0
   -4.7089   -1.3875   -0.8939 H   0  0  0  0  0  0  0  0  0  0  0  0
   -3.7996    0.5162   -1.9376 H   0  0  0  0  0  0  0  0  0  0  0  0
   -3.5946    1.3816   -0.4407 H   0  0  0  0  0  0  0  0  0  0  0  0
   -1.9228   -0.9879   -1.3773 H   0  0  0  0  0  0  0  0  0  0  0  0
    0.6827    1.3137   -2.1271 H   0  0  0  0  0  0  0  0  0  0  0  0
    0.3486   -0.3593   -1.6637 H   0  0  0  0  0  0  0  0  0  0  0  0
   -1.4890    2.3565    0.1378 H   0  0  0  0  0  0  0  0  0  0  0  0
    1.6133   -0.8875    0.3520 H   0  0  0  0  0  0  0  0  0  0  0  0
    1.9919    0.3512    1.5342 H   0  0  0  0  0  0  0  0  0  0  0  0
    3.1915    1.6222   -0.4224 H   0  0  0  0  0  0  0  0  0  0  0  0
    4.3009    0.5004    1.6317 H   0  0  0  0  0  0  0  0  0  0  0  0
    5.2928    0.6282    0.1857 H   0  0  0  0  0  0  0  0  0  0  0  0
    5.5625   -1.6763    0.7758 H   0  0  0  0  0  0  0  0  0  0  0  0
    3.8554   -1.8541    1.2362 H   0  0  0  0  0  0  0  0  0  0  0  0
    4.1540    0.3481   -2.1803 H   0  0  0  0  0  0  0  0  0  0  0  0
    2.5123   -0.3003   -2.1968 H   0  0  0  0  0  0  0  0  0  0  0  0
  2  1  1  0
  3  2  1  0
  4  3  1  0
  5  4  1  0
  6  5  1  0
  7  6  1  0
  8  7  1  0
  8  3  1  0
  9  8  1  0
 10  9  1  0
 10  1  1  0
 11  5  1  0
 12  2  1  0
 13  1  1  0
 14 13  1  0
 15 14  1  0
 16 15  1  0
 17 16  1  0
 18 17  1  0
 18 14  1  0
  1 19  1  0
  2 20  1  0
  3 21  1  0
  4 22  1  0
  4 23  1  0
  5 24  1  0
  6 25  1  0
  6 26  1  0
  7 27  1  0
  7 28  1  0
  8 29  1  0
 10 30  1  0
 10 31  1  0
 12 32  1  0
 13 33  1  0
 13 34  1  0
 14 35  1  0
 15 36  1  0
 15 37  1  0
 16 38  1  0
 16 39  1  0
 18 40  1  0
 18 41  1  0
M  END
>  <CID>  (1) 
4

>  <Energy>  (1) 
46.690347422754904

$$$$
