
     RDKit          3D

 36 37  0  0  0  0  0  0  0  0999 V2000
   -0.0777    0.1534    0.5951 C   0  0  0  0  0  0  0  0  0  0  0  0
    1.0446   -0.8076    1.1057 C   0  0  0  0  0  0  0  0  0  0  0  0
    2.3358   -0.0271    1.4005 C   0  0  0  0  0  0  0  0  0  0  0  0
    2.8895    0.6501    0.1461 C   0  0  0  0  0  0  0  0  0  0  0  0
    1.8507    0.8527   -0.9570 C   0  0  0  0  0  0  0  0  0  0  0  0
    0.4676    1.2281   -0.4057 C   0  0  0  0  0  0  0  0  0  0  0  0
    0.5003    2.6240    0.2371 C   0  0  0  0  0  0  0  0  0  0  0  0
    4.3641   -0.4197   -0.5886 Br  0  0  0  0  0  0  0  0  0  0  0  0
    0.6032   -1.5751    2.3582 C   0  0  0  0  0  0  0  0  0  0  0  0
   -1.2544   -0.6095    0.1328 N   0  0  0  0  0  0  0  0  0  0  0  0
   -2.5321    0.0627    0.3418 C   0  0  0  0  0  0  0  0  0  0  0  0
   -3.6341   -0.7862   -0.2939 C   0  0  0  0  0  0  0  0  0  0  0  0
   -2.8918   -1.2191   -1.8829 S   0  0  0  0  0  0  0  0  0  0  0  0
   -1.2093   -1.2558   -1.1723 C   0  0  2  0  0  0  0  0  0  0  0  0
   -0.7238   -3.0006   -1.0500 S   0  0  0  0  0  0  0  0  0  0  0  0
   -2.5493    1.3707   -0.2141 O   0  0  0  0  0  0  0  0  0  0  0  0
   -0.4053    0.6954    1.4950 H   0  0  0  0  0  0  0  0  0  0  0  0
    1.2881   -1.5470    0.3355 H   0  0  0  0  0  0  0  0  0  0  0  0
    2.1111    0.7453    2.1480 H   0  0  0  0  0  0  0  0  0  0  0  0
    3.0808   -0.6819    1.8687 H   0  0  0  0  0  0  0  0  0  0  0  0
    3.3625    1.6003    0.4168 H   0  0  0  0  0  0  0  0  0  0  0  0
    1.7423   -0.0579   -1.5610 H   0  0  0  0  0  0  0  0  0  0  0  0
    2.2023    1.6249   -1.6535 H   0  0  0  0  0  0  0  0  0  0  0  0
   -0.2049    1.3214   -1.2664 H   0  0  0  0  0  0  0  0  0  0  0  0
    0.8743    3.3674   -0.4751 H   0  0  0  0  0  0  0  0  0  0  0  0
    1.1402    2.6568    1.1236 H   0  0  0  0  0  0  0  0  0  0  0  0
   -0.5034    2.9364    0.5422 H   0  0  0  0  0  0  0  0  0  0  0  0
    1.3955   -2.2527    2.6942 H   0  0  0  0  0  0  0  0  0  0  0  0
    0.3752   -0.8904    3.1822 H   0  0  0  0  0  0  0  0  0  0  0  0
   -0.2870   -2.1815    2.1661 H   0  0  0  0  0  0  0  0  0  0  0  0
   -2.7357    0.1675    1.4131 H   0  0  0  0  0  0  0  0  0  0  0  0
   -4.5609   -0.2286   -0.4518 H   0  0  0  0  0  0  0  0  0  0  0  0
   -3.8327   -1.6974    0.2782 H   0  0  0  0  0  0  0  0  0  0  0  0
   -0.5530   -0.7609   -1.8907 H   0  0  0  0  0  0  0  0  0  0  0  0
   -1.0623   -3.3122   -2.3080 H   0  0  0  0  0  0  0  0  0  0  0  0
   -2.6104    1.2542   -1.1782 H   0  0  0  0  0  0  0  0  0  0  0  0
  2  1  1  0
  3  2  1  0
  4  3  1  0
  5  4  1  0
  6  5  1  0
  6  1  1  0
  7  6  1  0
  8  4  1  0
  9  2  1  0
 10  1  1  0
 11 10  1  0
 12 11  1  0
 13 12  1  0
 14 13  1  0
 14 10  1  0
 15 14  1  0
 16 11  1  0
  1 17  1  0
  2 18  1  0
  3 19  1  0
  3 20  1  0
  4 21  1  0
  5 22  1  0
  5 23  1  0
  6 24  1  0
  7 25  1  0
  7 26  1  0
  7 27  1  0
  9 28  1  0
  9 29  1  0
  9 30  1  0
 11 31  1  0
 12 32  1  0
 12 33  1  0
 14 34  1  6
 15 35  1  0
 16 36  1  0
M  END
>  <CID>  (1) 
4

>  <Energy>  (1) 
-9.297466298506361

$$$$
