
     RDKit          3D

 36 37  0  0  0  0  0  0  0  0999 V2000
    0.1730   -0.0564   -0.0550 C   0  0  0  0  0  0  0  0  0  0  0  0
    1.0240   -0.8637    0.9743 C   0  0  0  0  0  0  0  0  0  0  0  0
    2.5381   -0.6879    0.7027 C   0  0  0  0  0  0  0  0  0  0  0  0
    2.8837    0.6267    0.0098 C   0  0  0  0  0  0  0  0  0  0  0  0
    1.9689    1.7529    0.4528 C   0  0  0  0  0  0  0  0  0  0  0  0
    0.4884    1.4752    0.0986 C   0  0  0  0  0  0  0  0  0  0  0  0
    0.0918    2.2717   -1.1495 C   0  0  0  0  0  0  0  0  0  0  0  0
    4.7420    1.0974    0.3869 Br  0  0  0  0  0  0  0  0  0  0  0  0
    0.7094   -2.3646    1.0158 C   0  0  0  0  0  0  0  0  0  0  0  0
   -1.2505   -0.4642    0.0041 N   0  0  0  0  0  0  0  0  0  0  0  0
   -2.1317    0.3076    0.8696 C   0  0  0  0  0  0  0  0  0  0  0  0
   -3.5454   -0.2572    0.7114 C   0  0  0  0  0  0  0  0  0  0  0  0
   -3.6963   -0.5511   -1.0557 S   0  0  0  0  0  0  0  0  0  0  0  0
   -1.8952   -0.5804   -1.3080 C   0  0  2  0  0  0  0  0  0  0  0  0
   -1.4611   -2.1328   -2.1357 S   0  0  0  0  0  0  0  0  0  0  0  0
   -1.7309    0.1700    2.2169 O   0  0  0  0  0  0  0  0  0  0  0  0
    0.5621   -0.3602   -1.0374 H   0  0  0  0  0  0  0  0  0  0  0  0
    0.8217   -0.4624    1.9766 H   0  0  0  0  0  0  0  0  0  0  0  0
    3.0619   -0.7849    1.6632 H   0  0  0  0  0  0  0  0  0  0  0  0
    2.9154   -1.5093    0.0787 H   0  0  0  0  0  0  0  0  0  0  0  0
    2.8409    0.5095   -1.0788 H   0  0  0  0  0  0  0  0  0  0  0  0
    2.2962    2.7126    0.0339 H   0  0  0  0  0  0  0  0  0  0  0  0
    2.0475    1.8696    1.5433 H   0  0  0  0  0  0  0  0  0  0  0  0
   -0.0812    1.8927    0.9370 H   0  0  0  0  0  0  0  0  0  0  0  0
    0.3659    3.3270   -1.0427 H   0  0  0  0  0  0  0  0  0  0  0  0
    0.5910    1.8831   -2.0431 H   0  0  0  0  0  0  0  0  0  0  0  0
   -0.9880    2.2456   -1.3160 H   0  0  0  0  0  0  0  0  0  0  0  0
    0.8641   -2.8297    0.0369 H   0  0  0  0  0  0  0  0  0  0  0  0
   -0.3217   -2.5557    1.3277 H   0  0  0  0  0  0  0  0  0  0  0  0
    1.3620   -2.8728    1.7344 H   0  0  0  0  0  0  0  0  0  0  0  0
   -2.1539    1.3739    0.6171 H   0  0  0  0  0  0  0  0  0  0  0  0
   -3.6739   -1.1963    1.2607 H   0  0  0  0  0  0  0  0  0  0  0  0
   -4.3031    0.4479    1.0661 H   0  0  0  0  0  0  0  0  0  0  0  0
   -1.6483    0.2501   -1.9732 H   0  0  0  0  0  0  0  0  0  0  0  0
   -1.9930   -2.9206   -1.1931 H   0  0  0  0  0  0  0  0  0  0  0  0
   -1.4734   -0.7635    2.3015 H   0  0  0  0  0  0  0  0  0  0  0  0
  2  1  1  0
  3  2  1  0
  4  3  1  0
  5  4  1  0
  6  5  1  0
  6  1  1  0
  7  6  1  0
  8  4  1  0
  9  2  1  0
 10  1  1  0
 11 10  1  0
 12 11  1  0
 13 12  1  0
 14 13  1  0
 14 10  1  0
 15 14  1  0
 16 11  1  0
  1 17  1  0
  2 18  1  0
  3 19  1  0
  3 20  1  0
  4 21  1  0
  5 22  1  0
  5 23  1  0
  6 24  1  0
  7 25  1  0
  7 26  1  0
  7 27  1  0
  9 28  1  0
  9 29  1  0
  9 30  1  0
 11 31  1  0
 12 32  1  0
 12 33  1  0
 14 34  1  6
 15 35  1  0
 16 36  1  0
M  END
>  <CID>  (1) 
4

>  <Energy>  (1) 
-9.297466298506361

$$$$
