
     RDKit          3D

 36 37  0  0  0  0  0  0  0  0999 V2000
    0.1968   -0.2683    0.0053 C   0  0  0  0  0  0  0  0  0  0  0  0
    0.9405   -0.4912    1.3643 C   0  0  0  0  0  0  0  0  0  0  0  0
    2.3694    0.0935    1.3750 C   0  0  0  0  0  0  0  0  0  0  0  0
    2.9795    0.1005   -0.0147 C   0  0  0  0  0  0  0  0  0  0  0  0
    2.2048    0.9950   -0.9789 C   0  0  0  0  0  0  0  0  0  0  0  0
    0.6741    1.0195   -0.7336 C   0  0  0  0  0  0  0  0  0  0  0  0
    0.2655    2.3311   -0.0573 C   0  0  0  0  0  0  0  0  0  0  0  0
    4.8379    0.6999    0.0862 Br  0  0  0  0  0  0  0  0  0  0  0  0
    1.0065   -1.9894    1.7107 C   0  0  0  0  0  0  0  0  0  0  0  0
   -1.2425   -0.5028    0.0387 N   0  0  0  0  0  0  0  0  0  0  0  0
   -2.0025   -0.4663   -1.1893 C   0  0  0  0  0  0  0  0  0  0  0  0
   -3.2271   -1.3675   -0.9858 C   0  0  0  0  0  0  0  0  0  0  0  0
   -3.7066   -1.1361    0.7430 S   0  0  0  0  0  0  0  0  0  0  0  0
   -2.0812   -0.4483    1.2148 C   0  0  2  0  0  0  0  0  0  0  0  0
   -2.3495    1.1737    1.9528 S   0  0  0  0  0  0  0  0  0  0  0  0
   -2.3823    0.8586   -1.5160 O   0  0  0  0  0  0  0  0  0  0  0  0
    0.5636   -1.0814   -0.6414 H   0  0  0  0  0  0  0  0  0  0  0  0
    0.4021    0.0083    2.1772 H   0  0  0  0  0  0  0  0  0  0  0  0
    2.3350    1.1196    1.7642 H   0  0  0  0  0  0  0  0  0  0  0  0
    3.0035   -0.4595    2.0798 H   0  0  0  0  0  0  0  0  0  0  0  0
    3.0413   -0.9201   -0.4085 H   0  0  0  0  0  0  0  0  0  0  0  0
    2.5968    2.0198   -0.9782 H   0  0  0  0  0  0  0  0  0  0  0  0
    2.3875    0.6232   -1.9968 H   0  0  0  0  0  0  0  0  0  0  0  0
    0.2205    1.0408   -1.7334 H   0  0  0  0  0  0  0  0  0  0  0  0
    0.5741    2.3740    0.9902 H   0  0  0  0  0  0  0  0  0  0  0  0
   -0.8150    2.4787   -0.1079 H   0  0  0  0  0  0  0  0  0  0  0  0
    0.7124    3.1898   -0.5709 H   0  0  0  0  0  0  0  0  0  0  0  0
    0.0195   -2.4590    1.7078 H   0  0  0  0  0  0  0  0  0  0  0  0
    1.6334   -2.5328    0.9954 H   0  0  0  0  0  0  0  0  0  0  0  0
    1.4354   -2.1342    2.7083 H   0  0  0  0  0  0  0  0  0  0  0  0
   -1.4237   -0.8569   -2.0343 H   0  0  0  0  0  0  0  0  0  0  0  0
   -2.9660   -2.4212   -1.1258 H   0  0  0  0  0  0  0  0  0  0  0  0
   -4.0613   -1.1046   -1.6416 H   0  0  0  0  0  0  0  0  0  0  0  0
   -1.7071   -1.1067    2.0011 H   0  0  0  0  0  0  0  0  0  0  0  0
   -3.4138    0.8025    2.6756 H   0  0  0  0  0  0  0  0  0  0  0  0
   -3.0217    0.8177   -2.2444 H   0  0  0  0  0  0  0  0  0  0  0  0
  2  1  1  0
  3  2  1  0
  4  3  1  0
  5  4  1  0
  6  5  1  0
  6  1  1  0
  7  6  1  0
  8  4  1  0
  9  2  1  0
 10  1  1  0
 11 10  1  0
 12 11  1  0
 13 12  1  0
 14 13  1  0
 14 10  1  0
 15 14  1  0
 16 11  1  0
  1 17  1  0
  2 18  1  0
  3 19  1  0
  3 20  1  0
  4 21  1  0
  5 22  1  0
  5 23  1  0
  6 24  1  0
  7 25  1  0
  7 26  1  0
  7 27  1  0
  9 28  1  0
  9 29  1  0
  9 30  1  0
 11 31  1  0
 12 32  1  0
 12 33  1  0
 14 34  1  1
 15 35  1  0
 16 36  1  0
M  END
>  <CID>  (1) 
4

>  <Energy>  (1) 
-9.297466298506361

$$$$
