
     RDKit          3D

 36 37  0  0  0  0  0  0  0  0999 V2000
    0.0550    0.2262    0.5205 C   0  0  0  0  0  0  0  0  0  0  0  0
    0.8807   -1.0975    0.4302 C   0  0  0  0  0  0  0  0  0  0  0  0
    2.3809   -0.8331    0.6649 C   0  0  0  0  0  0  0  0  0  0  0  0
    2.9181    0.2332   -0.2757 C   0  0  0  0  0  0  0  0  0  0  0  0
    2.1599    1.5408   -0.1191 C   0  0  0  0  0  0  0  0  0  0  0  0
    0.6600    1.3446   -0.3928 C   0  0  0  0  0  0  0  0  0  0  0  0
   -0.0545    2.6923   -0.2233 C   0  0  0  0  0  0  0  0  0  0  0  0
    4.8101    0.5389    0.1164 Br  0  0  0  0  0  0  0  0  0  0  0  0
    0.4292   -2.1693    1.4281 C   0  0  0  0  0  0  0  0  0  0  0  0
   -1.3821    0.0960    0.2931 N   0  0  0  0  0  0  0  0  0  0  0  0
   -1.9602   -0.4108   -0.9369 C   0  0  0  0  0  0  0  0  0  0  0  0
   -2.7545   -1.6822   -0.6352 C   0  0  0  0  0  0  0  0  0  0  0  0
   -3.4897   -1.3875    0.9780 S   0  0  0  0  0  0  0  0  0  0  0  0
   -2.2380   -0.1578    1.4365 C   0  0  2  0  0  0  0  0  0  0  0  0
   -3.0558    1.3679    1.9698 S   0  0  0  0  0  0  0  0  0  0  0  0
   -1.0059   -0.6760   -1.9494 O   0  0  0  0  0  0  0  0  0  0  0  0
    0.1897    0.6000    1.5471 H   0  0  0  0  0  0  0  0  0  0  0  0
    0.7853   -1.5232   -0.5751 H   0  0  0  0  0  0  0  0  0  0  0  0
    2.9432   -1.7657    0.5252 H   0  0  0  0  0  0  0  0  0  0  0  0
    2.5398   -0.5317    1.7096 H   0  0  0  0  0  0  0  0  0  0  0  0
    2.8867   -0.1132   -1.3144 H   0  0  0  0  0  0  0  0  0  0  0  0
    2.5650    2.2908   -0.8109 H   0  0  0  0  0  0  0  0  0  0  0  0
    2.3004    1.9458    0.8925 H   0  0  0  0  0  0  0  0  0  0  0  0
    0.5649    1.0558   -1.4458 H   0  0  0  0  0  0  0  0  0  0  0  0
    0.4229    3.4636   -0.8376 H   0  0  0  0  0  0  0  0  0  0  0  0
   -0.0256    3.0278    0.8188 H   0  0  0  0  0  0  0  0  0  0  0  0
   -1.1009    2.6342   -0.5377 H   0  0  0  0  0  0  0  0  0  0  0  0
    1.0872   -3.0442    1.3816 H   0  0  0  0  0  0  0  0  0  0  0  0
   -0.5795   -2.5247    1.2127 H   0  0  0  0  0  0  0  0  0  0  0  0
    0.4512   -1.7901    2.4552 H   0  0  0  0  0  0  0  0  0  0  0  0
   -2.6372    0.3580   -1.3316 H   0  0  0  0  0  0  0  0  0  0  0  0
   -2.1089   -2.5657   -0.6017 H   0  0  0  0  0  0  0  0  0  0  0  0
   -3.5241   -1.8611   -1.3921 H   0  0  0  0  0  0  0  0  0  0  0  0
   -1.6856   -0.5546    2.2926 H   0  0  0  0  0  0  0  0  0  0  0  0
   -1.9275    2.0720    2.1155 H   0  0  0  0  0  0  0  0  0  0  0  0
   -1.5002   -0.7994   -2.7771 H   0  0  0  0  0  0  0  0  0  0  0  0
  2  1  1  0
  3  2  1  0
  4  3  1  0
  5  4  1  0
  6  5  1  0
  6  1  1  0
  7  6  1  0
  8  4  1  0
  9  2  1  0
 10  1  1  0
 11 10  1  0
 12 11  1  0
 13 12  1  0
 14 13  1  0
 14 10  1  0
 15 14  1  0
 16 11  1  0
  1 17  1  0
  2 18  1  0
  3 19  1  0
  3 20  1  0
  4 21  1  0
  5 22  1  0
  5 23  1  0
  6 24  1  0
  7 25  1  0
  7 26  1  0
  7 27  1  0
  9 28  1  0
  9 29  1  0
  9 30  1  0
 11 31  1  0
 12 32  1  0
 12 33  1  0
 14 34  1  1
 15 35  1  0
 16 36  1  0
M  END
>  <CID>  (1) 
4

>  <Energy>  (1) 
-9.297466298506361

$$$$
