
     RDKit          3D

 41 43  0  0  0  0  0  0  0  0999 V2000
    0.6361   -0.2976    0.3588 C   0  0  0  0  0  0  0  0  0  0  0  0
   -0.5472   -0.3497    1.3622 C   0  0  0  0  0  0  0  0  0  0  0  0
   -1.8752    0.1348    0.7519 C   0  0  0  0  0  0  0  0  0  0  0  0
   -3.0797   -0.4875    1.4786 C   0  0  0  0  0  0  0  0  0  0  0  0
   -4.4191   -0.1607    0.8227 C   0  0  0  0  0  0  0  0  0  0  0  0
   -4.4155   -0.3936   -0.6852 C   0  0  0  0  0  0  0  0  0  0  0  0
   -3.2140    0.2296   -1.3914 C   0  0  0  0  0  0  0  0  0  0  0  0
   -1.8880   -0.1696   -0.7438 C   0  0  0  0  0  0  0  0  0  0  0  0
   -0.8489    0.5304   -1.4315 O   0  0  0  0  0  0  0  0  0  0  0  0
    0.3508    0.7732   -0.6924 C   0  0  0  0  0  0  0  0  0  0  0  0
   -4.9277    1.6903    1.2181 Br  0  0  0  0  0  0  0  0  0  0  0  0
   -0.2876    0.4044    2.5463 O   0  0  0  0  0  0  0  0  0  0  0  0
    1.9928   -0.1451    1.0785 C   0  0  0  0  0  0  0  0  0  0  0  0
    3.3009   -0.3071    0.2798 C   0  0  0  0  0  0  0  0  0  0  0  0
    3.8307    0.9913   -0.3348 C   0  0  0  0  0  0  0  0  0  0  0  0
    5.1052    0.6234   -1.0803 C   0  0  0  0  0  0  0  0  0  0  0  0
    4.7728   -0.9991   -1.8199 S   0  0  0  0  0  0  0  0  0  0  0  0
    3.2762   -1.3364   -0.8462 C   0  0  0  0  0  0  0  0  0  0  0  0
    0.6232   -1.2658   -0.1599 H   0  0  0  0  0  0  0  0  0  0  0  0
   -0.6434   -1.3916    1.6922 H   0  0  0  0  0  0  0  0  0  0  0  0
   -1.9292    1.2247    0.8830 H   0  0  0  0  0  0  0  0  0  0  0  0
   -3.0784   -0.1791    2.5314 H   0  0  0  0  0  0  0  0  0  0  0  0
   -2.9653   -1.5799    1.4777 H   0  0  0  0  0  0  0  0  0  0  0  0
   -5.2135   -0.7548    1.2873 H   0  0  0  0  0  0  0  0  0  0  0  0
   -5.3404   -0.0214   -1.1418 H   0  0  0  0  0  0  0  0  0  0  0  0
   -4.3949   -1.4761   -0.8670 H   0  0  0  0  0  0  0  0  0  0  0  0
   -3.2104   -0.0694   -2.4472 H   0  0  0  0  0  0  0  0  0  0  0  0
   -3.3039    1.3233   -1.4036 H   0  0  0  0  0  0  0  0  0  0  0  0
   -1.7301   -1.2435   -0.9099 H   0  0  0  0  0  0  0  0  0  0  0  0
    0.2769    1.7659   -0.2334 H   0  0  0  0  0  0  0  0  0  0  0  0
    1.1458    0.8202   -1.4377 H   0  0  0  0  0  0  0  0  0  0  0  0
   -0.2700    1.3492    2.3148 H   0  0  0  0  0  0  0  0  0  0  0  0
    2.0171   -0.9140    1.8642 H   0  0  0  0  0  0  0  0  0  0  0  0
    2.0276    0.8179    1.6039 H   0  0  0  0  0  0  0  0  0  0  0  0
    4.0550   -0.6310    1.0148 H   0  0  0  0  0  0  0  0  0  0  0  0
    4.0424    1.7417    0.4349 H   0  0  0  0  0  0  0  0  0  0  0  0
    3.1143    1.4398   -1.0286 H   0  0  0  0  0  0  0  0  0  0  0  0
    5.9500    0.5294   -0.3908 H   0  0  0  0  0  0  0  0  0  0  0  0
    5.3580    1.3616   -1.8461 H   0  0  0  0  0  0  0  0  0  0  0  0
    3.2851   -2.3608   -0.4635 H   0  0  0  0  0  0  0  0  0  0  0  0
    2.4212   -1.2176   -1.5155 H   0  0  0  0  0  0  0  0  0  0  0  0
  2  1  1  0
  3  2  1  0
  4  3  1  0
  5  4  1  0
  6  5  1  0
  7  6  1  0
  8  7  1  0
  8  3  1  0
  9  8  1  0
 10  9  1  0
 10  1  1  0
 11  5  1  0
 12  2  1  0
 13  1  1  0
 14 13  1  0
 15 14  1  0
 16 15  1  0
 17 16  1  0
 18 17  1  0
 18 14  1  0
  1 19  1  0
  2 20  1  0
  3 21  1  0
  4 22  1  0
  4 23  1  0
  5 24  1  0
  6 25  1  0
  6 26  1  0
  7 27  1  0
  7 28  1  0
  8 29  1  0
 10 30  1  0
 10 31  1  0
 12 32  1  0
 13 33  1  0
 13 34  1  0
 14 35  1  0
 15 36  1  0
 15 37  1  0
 16 38  1  0
 16 39  1  0
 18 40  1  0
 18 41  1  0
M  END
>  <CID>  (1) 
4

>  <Energy>  (1) 
46.690347422754904

$$$$
