
     RDKit          3D

 41 43  0  0  0  0  0  0  0  0999 V2000
    0.6394    0.8261   -0.3483 C   0  0  0  0  0  0  0  0  0  0  0  0
   -0.1371   -0.1898    0.5115 C   0  0  0  0  0  0  0  0  0  0  0  0
   -1.5774   -0.3464   -0.0057 C   0  0  0  0  0  0  0  0  0  0  0  0
   -2.4343   -1.2758    0.8694 C   0  0  0  0  0  0  0  0  0  0  0  0
   -3.8799   -1.3898    0.3847 C   0  0  0  0  0  0  0  0  0  0  0  0
   -4.5270   -0.0379    0.0939 C   0  0  0  0  0  0  0  0  0  0  0  0
   -3.6455    0.8924   -0.7372 C   0  0  0  0  0  0  0  0  0  0  0  0
   -2.2437    1.0283   -0.1427 C   0  0  0  0  0  0  0  0  0  0  0  0
   -1.4711    1.8556   -1.0146 O   0  0  0  0  0  0  0  0  0  0  0  0
   -0.1732    2.1218   -0.4804 C   0  0  0  0  0  0  0  0  0  0  0  0
   -3.9634   -2.5327   -1.2061 Br  0  0  0  0  0  0  0  0  0  0  0  0
   -0.1328    0.2427    1.8711 O   0  0  0  0  0  0  0  0  0  0  0  0
    2.0485    1.1547    0.1862 C   0  0  0  0  0  0  0  0  0  0  0  0
    2.9826   -0.0533    0.3579 C   0  0  0  0  0  0  0  0  0  0  0  0
    3.2634   -0.7975   -0.9492 C   0  0  0  0  0  0  0  0  0  0  0  0
    4.3461   -1.8206   -0.6458 C   0  0  0  0  0  0  0  0  0  0  0  0
    5.4715   -0.9919    0.5068 S   0  0  0  0  0  0  0  0  0  0  0  0
    4.3516    0.3851    0.8828 C   0  0  0  0  0  0  0  0  0  0  0  0
    0.7291    0.3988   -1.3559 H   0  0  0  0  0  0  0  0  0  0  0  0
    0.3649   -1.1636    0.4733 H   0  0  0  0  0  0  0  0  0  0  0  0
   -1.4924   -0.7833   -1.0107 H   0  0  0  0  0  0  0  0  0  0  0  0
   -2.4605   -0.8852    1.8948 H   0  0  0  0  0  0  0  0  0  0  0  0
   -1.9649   -2.2656    0.9267 H   0  0  0  0  0  0  0  0  0  0  0  0
   -4.4764   -1.9334    1.1256 H   0  0  0  0  0  0  0  0  0  0  0  0
   -5.4965   -0.1635   -0.4028 H   0  0  0  0  0  0  0  0  0  0  0  0
   -4.7333    0.4564    1.0523 H   0  0  0  0  0  0  0  0  0  0  0  0
   -4.1128    1.8827   -0.8047 H   0  0  0  0  0  0  0  0  0  0  0  0
   -3.5782    0.5335   -1.7720 H   0  0  0  0  0  0  0  0  0  0  0  0
   -2.3253    1.5234    0.8345 H   0  0  0  0  0  0  0  0  0  0  0  0
   -0.2728    2.6458    0.4781 H   0  0  0  0  0  0  0  0  0  0  0  0
    0.3253    2.8071   -1.1744 H   0  0  0  0  0  0  0  0  0  0  0  0
   -0.2683   -0.5408    2.4323 H   0  0  0  0  0  0  0  0  0  0  0  0
    2.5185    1.8736   -0.4987 H   0  0  0  0  0  0  0  0  0  0  0  0
    1.9630    1.6716    1.1511 H   0  0  0  0  0  0  0  0  0  0  0  0
    2.5418   -0.7499    1.0833 H   0  0  0  0  0  0  0  0  0  0  0  0
    3.6060   -0.1006   -1.7253 H   0  0  0  0  0  0  0  0  0  0  0  0
    2.3701   -1.2992   -1.3354 H   0  0  0  0  0  0  0  0  0  0  0  0
    3.9250   -2.7029   -0.1539 H   0  0  0  0  0  0  0  0  0  0  0  0
    4.8713   -2.1396   -1.5500 H   0  0  0  0  0  0  0  0  0  0  0  0
    4.7190    1.2798    0.3697 H   0  0  0  0  0  0  0  0  0  0  0  0
    4.3300    0.5838    1.9583 H   0  0  0  0  0  0  0  0  0  0  0  0
  2  1  1  0
  3  2  1  0
  4  3  1  0
  5  4  1  0
  6  5  1  0
  7  6  1  0
  8  7  1  0
  8  3  1  0
  9  8  1  0
 10  9  1  0
 10  1  1  0
 11  5  1  0
 12  2  1  0
 13  1  1  0
 14 13  1  0
 15 14  1  0
 16 15  1  0
 17 16  1  0
 18 17  1  0
 18 14  1  0
  1 19  1  0
  2 20  1  0
  3 21  1  0
  4 22  1  0
  4 23  1  0
  5 24  1  0
  6 25  1  0
  6 26  1  0
  7 27  1  0
  7 28  1  0
  8 29  1  0
 10 30  1  0
 10 31  1  0
 12 32  1  0
 13 33  1  0
 13 34  1  0
 14 35  1  0
 15 36  1  0
 15 37  1  0
 16 38  1  0
 16 39  1  0
 18 40  1  0
 18 41  1  0
M  END
>  <CID>  (1) 
4

>  <Energy>  (1) 
46.690347422754904

$$$$
